$# LS-DYNA Keyword file created by WB-LSDYNA 2022 R2
*KEYWORD
*PARAMETER_DUPLICATION
4
*DATABASE_FORMAT
$    iform   ibinary                                                      unused
         0         0                                                            
*CONTROL_TERMINATION
$   endtim    endcyc     dtmin    endeng    endmas                        unused
      0.01 100000000     0.001         0    100000                              
*CONTROL_TIMESTEP
$   dtinit    tssfac      isdo    tslimt     dt2ms      lctm     erode     ms1st
         0       0.1         0         0         0         0         1         0
$   dt2msf   dt2mslc     imscl                                            unused
         0         0         0                                                  
*CONTROL_CONTACT
$   slsfac    rwnpal    islchk    shlthk    penopt    thkchg     orien    enmass
         0         0         1         1         1         0         2         0
$   usrstr   usrfric     nsbcs    interm     xpene     ssthk      ecdt   tiedprj
         0         0         0         0         0         0         0         0
$    sfric     dfric       edc       vfc        th     th_sf    pen_sf    unused
         0         0         0         0         0         0         0          
$   ignore    frceng   skiprwg    outseg   spotstp   spotdel   spothin   unused1
         2         1         0         1         0         1       0.5          
$     isym    nserod    rwgaps    rwgdth     rwksf      icov    swradf    ithoff
         0         0         0         0         0         0         0         0
$   shledg    pstiff    ithcnt    tdcnof     ftall                       unused2
         1         0         0         0         1                              
*CONTROL_ENERGY
$     hgen      rwen    slnten     rylen                                  unused
         2         2         2         2                                        
*CONTROL_ACCURACY
$      osu       inn    pidosu                                            unused
         0         1         0                                                 0
*CONTROL_BULK_VISCOSITY
$       q1        q2      type                                            unused
       1.5      0.06        -2                                                  
*CONTROL_SOLID
$    esort    fmatrx   niptets    swlocl                                  unused
         1         0         0         0                                        
$    pm1     pm2     pm3     pm4     pm5     pm6     pm7     pm8     pm9    pm10
       0       0       0       0       0       0       0       0       0       0
*CONTROL_SHELL
$   wrpang     esort     irnxx    istupd    theory       bwc     miter      proj
        20         1        -1         4         2         1         1         1
$  rotascl    intgrd    lamsht    cstyp6    tshell    nfail1    nfail4   psnfail
         0         0         0         0         0         1         1         0
$   pstupd    irquad     cntco                                            unused
         0         0         2                                                  
*CONTROL_OUTPUT
$    npopt    neecho    nrefup    iaccop     opifs    ipnint    ikedit    iflush
         1         0         0         0         0         0         0         0
$    iprtf    ierode     tet10    msgmax    ipcurv                        unused
         0         0         0         0         0                              
*CONTROL_PARALLEL
$     ncpu    numrhs    consti      para                                  unused
         0         0         1         0                                        
*CONTROL_SOLUTION
$     soln       nlq     isnan     lcint                                  unused
         0         0         0         0                                        
*CONTROL_HOURGLASS
$      ihq        qh                                                     unused1
         5       0.1                                                            
*SECTION_SOLID
$       ID    elform       aet                                           unused1
         1        10         0                                                  
*MAT_ELASTIC
$       ID        ro         E        pr        da        db         k   unused1
         1  7.85E-09    200000       0.3         0         0         0          
$Material Id = {1,{557B67C1-D55D-4082-92A5-01839E1B4808}, Structural Steel}
*PART
$                                                             partname   unused1
                                                             SYS\Solid          
$       ID     secid       mid     eosid      hgid      grav     adopt      tmid
         1         1         1         0         0         0         0         0
*SECTION_SHELL
$       ID    elform      shrf       nip     propt        qr     icomp     setyp
         2         2  0.833333         3         0         0         0         0
$       t1        t2        t3        t4      nloc     marea              unused
     0.001     0.001     0.001     0.001         0         0                    
*MAT_ELASTIC
$       ID        ro         E        pr        da        db         k   unused1
         2  7.85E-09    200000       0.3         0         0         0          
$Material Id = {2,{874A305A-8F80-4B3F-8186-3611EC1C3AFB}, Structural Steel}
*PART
$                                                             partname   unused1
                                                           SYS\Surface          
$       ID     secid       mid     eosid      hgid      grav     adopt      tmid
         2         2         2         0         0         0         0         0
*NODE
       1    -11.28575498     31.68749511    -47.01233517                        
       2    -10.74062087     31.09000000      8.47801582                        
       3    -21.31398014     31.63175746    -44.92519745                        
       4    -20.36217386     30.76966419      6.75471924                        
       5    -30.04612186     31.79419005    -39.19599649                        
       6    -36.18343524     32.27362986    -30.29049945                        
       7    -38.48632710     31.63558973    -19.27159752                        
       8    -35.30216446     29.77954363     -6.42256136                        
       9    -28.08023408     31.24222380      2.39342979                        
      10    -15.48625420     22.50527612    -45.23270290                        
      11     -6.91070352     24.57522113    -45.97532507                        
      12     -0.81508723     32.09381518    -45.16896155                        
      13     -7.43631666     38.87642540    -45.70362426                        
      14    -15.43025658     40.41425169    -44.98662120                        
      15    -16.44999488     20.85559567      5.88210240                        
      16     -6.32949441     22.69935218      6.80875708                        
      17      0.63501949     30.44791650      6.03118304                        
      18     -4.82339847     40.87536948      6.01241416                        
      19    -15.84962715     39.06061080      6.81313574                        
      20    -11.08812889      3.35280714    -18.46729084                        
$ ... 2012 like lines cut
*ELEMENT_SOLID
       1       1
     128     183     138     180     180     180     180     180
       2       1
     136     138     183     180     180     180     180     180
       3       1
      85     183     128     180     180     180     180     180
       4       1
      85     136     183     180     180     180     180     180
       5       1
      18     128     183     138     138     138     138     138
       6       1
      30     183     136     138     138     138     138     138
       7       1
      30     183      85     136     136     136     136     136
       8       1
      18     183      85      30      30      30      30      30
       9       1
     115     116     182     169     169     169     169     169
      10       1
     115     182     135     169     169     169     169     169
$ ... 1410 like lines cut
*ELEMENT_SHELL
     918       2     357     353     352     355
     919       2     353     358     354     352
     920       2     354     359     356     352
     921       2     356     360     355     352
     922       2     357     361    1850     353
     923       2    1850    1877     358     353
     924       2     358     362     365     354
     925       2     365     364     359     354
     926       2     355     367     366     357
     927       2     360     368     367     355
     928       2     359     363     370     356
     929       2     370     369     360     356
     930       2     366     371     361     357
     931       2    1877     372     362     358
     932       2     364     373     363     359
     933       2     369     374     368     360
     934       2     361    1638     380    1850
     935       2     371     381    1638     361
     936       2     362     378     375     365
     937       2     372    1884     378     362
$ ... 1744 like lines cut
*DEFINE_COORDINATE_SYSTEM
$       ID        xO        yO        zO        xL        yL        zL   unused1
        27         0         0         0         1         0         0          
$       xP        yP        zP                                           unused2
         0         1         0                                                  
*SET_PART_LIST
         1
         1
*SET_PART_LIST
         2
         2
*SET_NODE_LIST
         3
         1         2         3         4         5         6         7         8
         9        10        11        12        13        14        15        16
        17        18        19        20        21        22        23        24
        25        26        27        28        29        30        31        32
        33        34        35        36        37        38        39        40
        41        42        43        44        45        46        47        48
        49        50        51        52        53        54        55        56
        57        58        59        60        61        62        63        64
        65        66        67        68        69        70        71        72
        73        74        75        76        77        78        79        80
        81        82        83        84        85        86        87        88
        89        90        91        92        93        94        95        96
        97        98        99       100       101       102       103
*SET_SEGMENT
         3
        85        18        30        30
        67        27        60        60
        67        24        27        27
        17        91        28        28
        83        11        90        90
        83        10        11        11
        34        28        91        91
        45        28        34        34
        63        28        45        45
        31        73        51        51
        72        31        51        51
        48        72        51        51
        86        31        72        72
        31        86        84        84
        27        24        50        50
        50        24        77        77
        79         5        38        38
        79         3         5         5
        14         3        79        79
$ ... 183 like lines cut
*INITIAL_VELOCITY_GENERATION
$      sid      styp     omega        vx        vy        vz     ivatn      icid
         1         2         0         0   -500000         0         0        27
$       xc        yc        zc        nx        ny        nz     phase   unused2
         0         0         0         0         0         0         0          
*CONTACT_AUTOMATIC_SINGLE_SURFACE_ID
$       ID                                                               heading
        32                                                      Body Interaction
$     ssid      msid     sstyp     mstyp    sboxid    mboxid       spr       mpr
         0         0         5         0         0         0         0         0
$       fs        fd        dc        vc       vdc    penchk        bt        dt
       0.1         0         0         0        10         0         0         0
$      sfs       sfm       sst       mst      sfst      sfmt       fsf       vsf
         0         0         0         0         0         0         0         0
$     soft   softscl    lcidab    maxpar     sbopt     depth     bsort    frcfrq
         2         0         0         0         3         5         0         0
$   penmax    tkhopt    shlthk     snlog      isym     i2d3d    sldthk    sldstf
         0         0         0         0         0         0         0         0
*DATABASE_GLSTAT
$       dt    binary      lcur     ioopt     dthff     binhf             unused1
     1E-05         3         0         0         0         0                   0
*DATABASE_SPCFORC
$       dt    binary      lcur     ioopt     dthff     binhf             unused1
     1E-05         3         0         0         0         0                   0
*DATABASE_RCFORC
$       dt    binary      lcur     ioopt     dthff     binhf             unused1
     1E-05         3         0         0         0         0                   0
*DATABASE_NCFORC
$       dt    binary      lcur     ioopt     dthff     binhf             unused1
     1E-05         3         0         0         0         0                   0
*DATABASE_BNDOUT
$       dt    binary      lcur     ioopt     dthff     binhf             unused1
     1E-05         3         0         0         0         0                   0
*DATABASE_NODOUT
$       dt    binary      lcur     ioopt     dthff     binhf             unused1
     1E-05         3         0         0         0         0                   0
*DATABASE_MATSUM
$       dt    binary      lcur     ioopt     dthff     binhf             unused1
     1E-05         3         0         0         0         0                   0
*DATABASE_ELOUT
$       dt    binary      lcur     ioopt     dthff     binhf             unused1
     1E-05         3         0         0         0         0                   0
*DATABASE_JNTFORC
$       dt    binary      lcur     ioopt     dthff     binhf             unused1
     1E-05         3         0         0         0         0                   0
*DATABASE_DEFORC
$       dt    binary      lcur     ioopt     dthff     binhf             unused1
     1E-05         3         0         0         0         0                   0
*DATABASE_EXTENT_BINARY
$    neiph     neips    maxint    strflg    sigflg    epsflg    rltflg    engflg
         0         0         0        10         1         1         0         0
$   cmpflg    ieverp    beamip     dcomp      shge     stssz    n3thdt   ialemat
         0         0         0         0         0         0         0         0
$  nintsld   pkp_sen      sclp     hydro     msscl     therm    intout    nodout
         0         0         0         0         2         0                    
*DATABASE_BINARY_D3PLOT
$       dt      lcdt      beam     npltc    psetid                       unused1
     4E-05         0         0         0         0                              
$    ioopt                                                               unused2
         0                                                                      
*DATABASE_BINARY_INTFOR
$       dt      lcdt      beam     npltc    psetid                        unused
     4E-05         0         0         0         0                              
*DATABASE_BINARY_D3PROP
$    ifile     imatl     iwall                                           unused2
         2         1         0                                                  
*END
